Version 4
SHEET 1 2000 796
WIRE 832 32 480 32
WIRE 1056 32 944 32
WIRE 480 48 480 32
WIRE 832 64 832 32
WIRE 912 64 912 48
WIRE 944 64 944 32
WIRE 688 128 576 128
WIRE 784 128 688 128
WIRE 480 144 480 128
WIRE 576 144 576 128
WIRE 688 144 688 128
WIRE 1056 160 1056 32
WIRE 1056 160 1024 160
WIRE 1104 160 1056 160
WIRE 784 192 768 192
WIRE 576 240 576 224
WIRE 688 240 688 224
WIRE 768 240 768 192
WIRE 768 240 688 240
WIRE 896 240 896 224
WIRE 944 240 944 224
WIRE 688 288 688 240
WIRE 944 320 944 304
WIRE 688 384 688 368
FLAG 944 320 0
FLAG 576 240 0
FLAG 480 144 0
FLAG 912 48 0
FLAG 688 384 0
FLAG 576 128 IN
FLAG 896 240 0
FLAG 1104 160 OUT
SYMBOL LT6100 912 192 R0
WINDOW 3 119 13 Left 2
SYMATTR InstName U1
SYMBOL res 672 128 R0
SYMATTR InstName R1
SYMATTR Value 3m
SYMBOL voltage 576 128 R0
WINDOW 123 24 138 Left 2
WINDOW 39 24 117 Left 2
SYMATTR Value 25
SYMATTR InstName V1
SYMBOL voltage 480 32 R0
WINDOW 123 24 138 Left 2
WINDOW 39 24 117 Left 2
SYMATTR InstName V2
SYMATTR Value 3
SYMBOL cap 928 240 R0
SYMATTR InstName C1
SYMATTR Value 220p
SYMBOL load2 688 288 R0
WINDOW 123 25 126 Left 2
SYMATTR InstName Iload
SYMATTR Value PULSE(0 15 0.2 .05 .05 .1 .25)
TEXT 1064 320 Left 2 !.tran 1
TEXT 792 -56 Center 2 ;LT6100 - Precision, Gain Selectable High Side Current Sense Amplifier\n0A to 33A High Side Current Monitor with 12kHz Frequency Rolloff\nInput 4.4V to 48V     Gain: 25V/V
TEXT 168 408 Left 2 ;Note:\n  If the simulation model is not found please update with the "Sync Release" command from the "Tools" menu.\n  It remains the customer's responsibility to verify proper and reliable operation in the actual application.\n  Component substitution and printed circuit board layout may significantly affect circuit performance or reliability\n  Contact your local sales representative for assistance. This circuit is distributed to customers only for use with LTC parts\n  Copyright © 2014 Linear Technology Inc. All rights reserved.
